data_image0
_chemical_formula_structural       Pb64O2C5H5
_chemical_formula_sum              "Pb64 O2 C5 H5"
_cell_length_a       14.2213
_cell_length_b       14.2213
_cell_length_c       28.7088
_cell_angle_alpha    90
_cell_angle_beta     90
_cell_angle_gamma    60

_space_group_name_H-M_alt    "P 1"
_space_group_IT_number       1

loop_
  _space_group_symop_operation_xyz
  'x, y, z'

loop_
  _atom_site_type_symbol
  _atom_site_label
  _atom_site_symmetry_multiplicity
  _atom_site_fract_x
  _atom_site_fract_y
  _atom_site_fract_z
  _atom_site_occupancy
  Pb  Pb1       1.0  0.12500  0.17156  0.31349  1.0000
  Pb  Pb2       1.0  0.37500  0.17156  0.31349  1.0000
  Pb  Pb3       1.0  0.62500  0.17156  0.31349  1.0000
  Pb  Pb4       1.0  0.87500  0.17156  0.31349  1.0000
  Pb  Pb5       1.0  0.12500  0.42156  0.31349  1.0000
  Pb  Pb6       1.0  0.37500  0.42156  0.31349  1.0000
  Pb  Pb7       1.0  0.62500  0.42156  0.31349  1.0000
  Pb  Pb8       1.0  0.87500  0.42156  0.31349  1.0000
  Pb  Pb9       1.0  0.12500  0.67156  0.31349  1.0000
  Pb  Pb10      1.0  0.37500  0.67156  0.31349  1.0000
  Pb  Pb11      1.0  0.62500  0.67156  0.31349  1.0000
  Pb  Pb12      1.0  0.87500  0.67156  0.31349  1.0000
  Pb  Pb13      1.0  0.12500  0.92156  0.31349  1.0000
  Pb  Pb14      1.0  0.37500  0.92156  0.31349  1.0000
  Pb  Pb15      1.0  0.62500  0.92156  0.31349  1.0000
  Pb  Pb16      1.0  0.87500  0.92156  0.31349  1.0000
  Pb  Pb17      1.0  0.20833  0.25490  0.41461  1.0000
  Pb  Pb18      1.0  0.45833  0.25490  0.41461  1.0000
  Pb  Pb19      1.0  0.70833  0.25490  0.41461  1.0000
  Pb  Pb20      1.0  0.95833  0.25490  0.41461  1.0000
  Pb  Pb21      1.0  0.20833  0.50490  0.41461  1.0000
  Pb  Pb22      1.0  0.45833  0.50490  0.41461  1.0000
  Pb  Pb23      1.0  0.70833  0.50490  0.41461  1.0000
  Pb  Pb24      1.0  0.95833  0.50490  0.41461  1.0000
  Pb  Pb25      1.0  0.20833  0.75490  0.41461  1.0000
  Pb  Pb26      1.0  0.45833  0.75490  0.41461  1.0000
  Pb  Pb27      1.0  0.70833  0.75490  0.41461  1.0000
  Pb  Pb28      1.0  0.95833  0.75490  0.41461  1.0000
  Pb  Pb29      1.0  0.20833  0.00490  0.41461  1.0000
  Pb  Pb30      1.0  0.45833  0.00490  0.41461  1.0000
  Pb  Pb31      1.0  0.70833  0.00490  0.41461  1.0000
  Pb  Pb32      1.0  0.95833  0.00490  0.41461  1.0000
  Pb  Pb33      1.0  0.04279  0.33902  0.52007  1.0000
  Pb  Pb34      1.0  0.29175  0.33869  0.51877  1.0000
  Pb  Pb35      1.0  0.53967  0.33752  0.51637  1.0000
  Pb  Pb36      1.0  0.79490  0.33775  0.51906  1.0000
  Pb  Pb37      1.0  0.04362  0.58888  0.51965  1.0000
  Pb  Pb38      1.0  0.29466  0.58885  0.51893  1.0000
  Pb  Pb39      1.0  0.54152  0.59179  0.51793  1.0000
  Pb  Pb40      1.0  0.79241  0.58905  0.51962  1.0000
  Pb  Pb41      1.0  0.04211  0.83944  0.51981  1.0000
  Pb  Pb42      1.0  0.29211  0.83867  0.51924  1.0000
  Pb  Pb43      1.0  0.54383  0.83826  0.51927  1.0000
  Pb  Pb44      1.0  0.79252  0.84041  0.51986  1.0000
  Pb  Pb45      1.0  0.04254  0.08823  0.52007  1.0000
  Pb  Pb46      1.0  0.29251  0.08884  0.51896  1.0000
  Pb  Pb47      1.0  0.54316  0.08754  0.51926  1.0000
  Pb  Pb48      1.0  0.79061  0.09207  0.52093  1.0000
  Pb  Pb49      1.0  0.12700  0.17171  0.61974  1.0000
  Pb  Pb50      1.0  0.37929  0.17224  0.61642  1.0000
  Pb  Pb51      1.0  0.62598  0.17622  0.61837  1.0000
  Pb  Pb52      1.0  0.87124  0.17364  0.61866  1.0000
  Pb  Pb53      1.0  0.12830  0.42455  0.61761  1.0000
  Pb  Pb54      1.0  0.37902  0.42159  0.61597  1.0000
  Pb  Pb55      1.0  0.62848  0.42192  0.62033  1.0000
  Pb  Pb56      1.0  0.87556  0.42809  0.61634  1.0000
  Pb  Pb57      1.0  0.12724  0.67173  0.61721  1.0000
  Pb  Pb58      1.0  0.37954  0.66835  0.61688  1.0000
  Pb  Pb59      1.0  0.62816  0.67252  0.61687  1.0000
  Pb  Pb60      1.0  0.87720  0.67479  0.61759  1.0000
  Pb  Pb61      1.0  0.12675  0.91943  0.61771  1.0000
  Pb  Pb62      1.0  0.37832  0.92028  0.61636  1.0000
  Pb  Pb63      1.0  0.62654  0.92332  0.61770  1.0000
  Pb  Pb64      1.0  0.87607  0.92174  0.61801  1.0000
  O   O1        1.0  0.46854  0.47153  0.72936  1.0000
  O   O2        1.0  0.76218  0.33526  0.72326  1.0000
  C   C1        1.0  0.57596  0.38766  0.72773  1.0000
  C   C2        1.0  0.58063  0.28943  0.73785  1.0000
  C   C3        1.0  0.47117  0.31429  0.74577  1.0000
  C   C4        1.0  0.40608  0.42453  0.73998  1.0000
  C   C5        1.0  0.65525  0.41553  0.71312  1.0000
  H   H1        1.0  0.65439  0.21097  0.73994  1.0000
  H   H2        1.0  0.44362  0.25757  0.75447  1.0000
  H   H3        1.0  0.31942  0.48047  0.74294  1.0000
  H   H4        1.0  0.63526  0.50006  0.71827  1.0000
  H   H5        1.0  0.81118  0.35320  0.70650  1.0000
